<?xml version="1.0" encoding="UTF-8"?>

<!-- generated on 2026-03-03T20:20:54.636300+02:00 by Eclipse SUMO netedit 1.26.0
-->

<additional xmlns:xsi="http://www.w3.org/2001/XMLSchema-instance" xsi:noNamespaceSchemaLocation="http://sumo.dlr.de/xsd/additional_file.xsd">
    <!-- StoppingPlaces -->
    <busStop id="8327140514" name="Мотозавод" lane="24161624#0_0" startPos="75.71" endPos="90.71" friendlyPos="1"/>
    <busStop id="8327159836" name="Поліклініка №5" lane="24161624#3_0" startPos="4.56" endPos="19.56" friendlyPos="1"/>
</additional>
