<?xml version="1.0" encoding="UTF-8"?>

<!-- generated on 2026-06-07T18:53:20.191384+02:00 by Eclipse SUMO netedit 1.26.0
<neteditConfiguration xmlns:xsi="http://www.w3.org/2001/XMLSchema-instance" xsi:noNamespaceSchemaLocation="http://sumo.dlr.de/xsd/neteditConfiguration.xsd">

    <input>
        <sumo-net-file value="C:\Users\GAMEMAX\Desktop\univer\Traffic_AI\new_map\new_network.net.xml"/>
    </input>

    <output>
        <output-file value="C:\Users\GAMEMAX\Desktop\univer\Traffic_AI\new_map\new_network.net.xml"/>
    </output>

    <processing>
        <geometry.min-radius.fix.railways value="false"/>
        <geometry.avoid-overlap value="false"/>
        <geometry.max-grade.fix value="false"/>
        <offset.disable-normalization value="true"/>
        <lefthand value="0"/>
    </processing>

    <junctions>
        <no-turnarounds value="true"/>
        <junctions.corner-detail value="5"/>
        <junctions.limit-turn-speed value="5.50"/>
        <rectangular-lane-cut value="0"/>
    </junctions>

    <pedestrian>
        <walkingareas value="0"/>
    </pedestrian>

</neteditConfiguration>
-->

<net version="1.20" junctionCornerDetail="5" limitTurnSpeed="5.50" avoidOverlap="0" xmlns:xsi="http://www.w3.org/2001/XMLSchema-instance" xsi:noNamespaceSchemaLocation="http://sumo.dlr.de/xsd/net_file.xsd">

    <location netOffset="0.00,0.00" convBoundary="-277.38,-142.23,79.54,149.37" origBoundary="-10000000000.00,-10000000000.00,10000000000.00,10000000000.00" projParameter="!"/>

    <edge id=":J5_0" function="internal">
        <lane id=":J5_0_0" index="0" speed="13.89" length="13.64" shape="-119.60,13.81 -122.54,11.84 -125.33,10.12 -128.22,8.56 -131.43,7.07"/>
    </edge>
    <edge id=":J5_1" function="internal">
        <lane id=":J5_1_0" index="0" speed="7.74" length="4.17" shape="-119.60,13.81 -122.66,10.97"/>
    </edge>
    <edge id=":J5_6" function="internal">
        <lane id=":J5_6_0" index="0" speed="7.74" length="10.69" shape="-122.66,10.97 -123.88,7.95 -123.27,4.75 -120.82,1.37"/>
    </edge>
    <edge id=":J5_2" function="internal">
        <lane id=":J5_2_0" index="0" speed="6.18" length="9.05" shape="-118.53,3.60 -120.02,5.66 -120.39,7.61 -119.64,9.45 -117.78,11.17"/>
    </edge>
    <edge id=":J5_3" function="internal">
        <lane id=":J5_3_0" index="0" speed="9.34" length="14.29" shape="-118.53,3.60 -121.65,6.21 -124.84,7.66 -128.10,7.94 -131.43,7.07"/>
    </edge>
    <edge id=":J5_4" function="internal">
        <lane id=":J5_4_0" index="0" speed="8.04" length="10.39" shape="-130.16,4.13 -127.81,4.72 -125.48,4.46 -123.15,3.34 -120.82,1.37"/>
    </edge>
    <edge id=":J5_5" function="internal">
        <lane id=":J5_5_0" index="0" speed="13.89" length="14.26" shape="-130.16,4.13 -126.86,5.67 -123.79,7.33 -120.80,9.15 -117.78,11.17"/>
    </edge>

    <edge id="-E2" from="J5" to="J4" priority="-1" shape="-125.09,8.07 -232.44,-38.44 -277.38,-101.22">
        <lane id="-E2_0" index="0" speed="13.89" length="188.87" shape="-131.43,7.07 -233.48,-37.15 -278.68,-100.29"/>
    </edge>
    <edge id="-E4" from="J7" to="J5" priority="-1">
        <lane id="-E4_0" index="0" speed="13.89" length="240.89" shape="78.63,150.69 -119.60,13.81"/>
    </edge>
    <edge id="-E5" from="J8" to="J5" priority="-1" shape="7.45,-142.23 -2.51,-92.03 -68.36,-50.42 -125.09,8.07">
        <lane id="-E5_0" index="0" speed="13.89" length="203.77" shape="9.02,-141.92 -1.07,-91.04 -67.34,-49.17 -118.53,3.60"/>
    </edge>
    <edge id="E2" from="J4" to="J5" priority="-1" shape="-277.38,-101.22 -232.49,-38.43 -125.09,8.07">
        <lane id="E2_0" index="0" speed="13.89" length="187.12" shape="-276.08,-102.15 -231.45,-39.72 -130.16,4.13"/>
    </edge>
    <edge id="E4" from="J5" to="J7" priority="-1">
        <lane id="E4_0" index="0" speed="13.89" length="240.89" shape="-117.78,11.17 80.45,148.05"/>
    </edge>
    <edge id="E5" from="J5" to="J8" priority="-1" shape="-125.09,8.07 -68.30,-50.52 -2.42,-92.04 7.45,-142.23">
        <lane id="E5_0" index="0" speed="13.89" length="201.84" shape="-120.82,1.37 -69.32,-51.77 -3.86,-93.03 5.88,-142.54"/>
    </edge>

    <tlLogic id="J5" type="static" programID="0" offset="0">
        <phase duration="30" state="GGgrrrGGgrrr"/>
        <phase duration="3"  state="yyyrrryyyrrr"/>
        <phase duration="30" state="rrrGGgrrrGGg"/>
        <phase duration="3"  state="rrryyyrrryyy"/>
    </tlLogic>

    <junction id="J4" type="dead_end" x="-277.38" y="-101.22" incLanes="-E2_0" intLanes="" shape="-277.38,-101.22 -274.78,-103.08 -279.98,-99.36"/>
    <junction id="J5" type="traffic_light" x="-125.09" y="8.07" incLanes="-E4_0 -E5_0 E2_0" intLanes=":J5_0_0 :J5_6_0 :J5_2_0 :J5_3_0 :J5_4_0 :J5_5_0" shape="-120.51,15.12 -116.87,9.86 -118.39,8.28 -118.64,7.43 -118.56,6.56 -118.14,5.65 -117.38,4.71 -121.97,0.26 -124.53,2.30 -125.80,2.86 -127.05,3.10 -128.29,3.04 -129.52,2.67 -132.06,8.54 -129.47,9.68 -127.57,10.58 -126.05,11.40 -124.58,12.32 -122.84,13.51">
        <request index="0" response="000000" foes="001000" cont="0"/>
        <request index="1" response="110000" foes="111000" cont="1"/>
        <request index="2" response="100000" foes="100000" cont="0"/>
        <request index="3" response="100011" foes="100011" cont="0"/>
        <request index="4" response="000000" foes="000010" cont="0"/>
        <request index="5" response="000000" foes="001110" cont="0"/>
    </junction>
    <junction id="J7" type="dead_end" x="79.54" y="149.37" incLanes="E4_0" intLanes="" shape="79.54,149.37 81.36,146.74 79.54,149.37"/>
    <junction id="J8" type="dead_end" x="7.45" y="-142.23" incLanes="E5_0" intLanes="" shape="7.45,-142.23 10.59,-141.61 4.31,-142.85"/>

    <junction id=":J5_6_0" type="internal" x="-122.66" y="10.97" incLanes=":J5_1_0 E2_0" intLanes=":J5_3_0 :J5_4_0 :J5_5_0"/>

    <connection from="-E4" to="-E2" fromLane="0" toLane="0" via=":J5_0_0" tl="J5" linkIndex="1" dir="s" state="O"/>
    <connection from="-E4" to="E5" fromLane="0" toLane="0" via=":J5_1_0" tl="J5" linkIndex="2" dir="l" state="o"/>
    <connection from="-E5" to="E4" fromLane="0" toLane="0" via=":J5_2_0" tl="J5" linkIndex="3" dir="r" state="o"/>
    <connection from="-E5" to="-E2" fromLane="0" toLane="0" via=":J5_3_0" tl="J5" linkIndex="5" dir="l" state="o"/>
    <connection from="E2" to="E5" fromLane="0" toLane="0" via=":J5_4_0" tl="J5" linkIndex="6" dir="r" state="O"/>
    <connection from="E2" to="E4" fromLane="0" toLane="0" via=":J5_5_0" tl="J5" linkIndex="7" dir="s" state="O"/>

    <connection from=":J5_0" to="-E2" fromLane="0" toLane="0" dir="s" state="M"/>
    <connection from=":J5_1" to="E5" fromLane="0" toLane="0" via=":J5_6_0" dir="l" state="m"/>
    <connection from=":J5_6" to="E5" fromLane="0" toLane="0" dir="l" state="M"/>
    <connection from=":J5_2" to="E4" fromLane="0" toLane="0" dir="r" state="M"/>
    <connection from=":J5_3" to="-E2" fromLane="0" toLane="0" dir="l" state="M"/>
    <connection from=":J5_4" to="E5" fromLane="0" toLane="0" dir="r" state="M"/>
    <connection from=":J5_5" to="E4" fromLane="0" toLane="0" dir="s" state="M"/>

</net>
