<?xml version="1.0" encoding="UTF-8"?>

<!-- generated on 2026-06-07 18:35:01.102376 by Eclipse SUMO randomTrips.py v1_26_0+0000-fa7df22d7f1
<configuration>
    <net-file value="C:\Users\GAMEMAX\Desktop\univer\Traffic_AI\new_map\new_network.net.xml"/>
    <route-file value="C:\Users\GAMEMAX\Desktop\univer\Traffic_AI\new_map\new_golden_routes.rou.xml"/>
    <fringe-factor value="100"/>
    <min-distance value="50.0"/>
    <period value="3.5"/>
</configuration>
-->

<!-- generated on 2026-06-07T18:35:01.017167+02:00 by Eclipse SUMO duarouter 1.26.0
<duarouterConfiguration xmlns:xsi="http://www.w3.org/2001/XMLSchema-instance" xsi:noNamespaceSchemaLocation="http://sumo.dlr.de/xsd/duarouterConfiguration.xsd">

    <input>
        <net-file value="C:\Users\GAMEMAX\Desktop\univer\Traffic_AI\new_map\new_network.net.xml"/>
        <route-files value="trips.trips.xml"/>
    </input>

    <output>
        <output-file value="C:\Users\GAMEMAX\Desktop\univer\Traffic_AI\new_map\new_golden_routes.rou.xml"/>
        <alternatives-output value="NUL"/>
    </output>

    <time>
        <begin value="0"/>
        <end value="3600.0"/>
    </time>

    <report>
        <no-warnings value="true"/>
        <ignore-errors value="true"/>
        <no-step-log value="true"/>
    </report>

</duarouterConfiguration>
-->

<routes xmlns:xsi="http://www.w3.org/2001/XMLSchema-instance" xsi:noNamespaceSchemaLocation="http://sumo.dlr.de/xsd/routes_file.xsd">
    <vehicle id="0" depart="0.00">
        <route edges="-E5 -E2"/>
    </vehicle>
    <vehicle id="1" depart="3.50">
        <route edges="-E4 -E2"/>
    </vehicle>
    <vehicle id="2" depart="7.00">
        <route edges="E2 E5"/>
    </vehicle>
    <vehicle id="3" depart="10.50">
        <route edges="-E5 -E2"/>
    </vehicle>
    <vehicle id="4" depart="14.00">
        <route edges="-E4 -E2"/>
    </vehicle>
    <vehicle id="5" depart="17.50">
        <route edges="-E5 E4"/>
    </vehicle>
    <vehicle id="6" depart="21.00">
        <route edges="E2 E5"/>
    </vehicle>
    <vehicle id="7" depart="24.50">
        <route edges="-E5 -E2"/>
    </vehicle>
    <vehicle id="8" depart="28.00">
        <route edges="E2 E4"/>
    </vehicle>
    <vehicle id="9" depart="31.50">
        <route edges="-E4 -E2"/>
    </vehicle>
    <vehicle id="10" depart="35.00">
        <route edges="E2 E4"/>
    </vehicle>
    <vehicle id="11" depart="38.50">
        <route edges="E2 E5"/>
    </vehicle>
    <vehicle id="12" depart="42.00">
        <route edges="-E5 E4"/>
    </vehicle>
    <vehicle id="13" depart="45.50">
        <route edges="E2 E4"/>
    </vehicle>
    <vehicle id="14" depart="49.00">
        <route edges="E2 E4"/>
    </vehicle>
    <vehicle id="15" depart="52.50">
        <route edges="-E4 -E2"/>
    </vehicle>
    <vehicle id="16" depart="56.00">
        <route edges="-E4 -E2"/>
    </vehicle>
    <vehicle id="17" depart="59.50">
        <route edges="-E4 -E2"/>
    </vehicle>
    <vehicle id="18" depart="63.00">
        <route edges="-E5 E4"/>
    </vehicle>
    <vehicle id="19" depart="66.50">
        <route edges="-E5 -E2"/>
    </vehicle>
    <vehicle id="20" depart="70.00">
        <route edges="-E4 E5"/>
    </vehicle>
    <vehicle id="21" depart="73.50">
        <route edges="-E5 E4"/>
    </vehicle>
    <vehicle id="22" depart="77.00">
        <route edges="-E4 E5"/>
    </vehicle>
    <vehicle id="23" depart="80.50">
        <route edges="E2 E4"/>
    </vehicle>
    <vehicle id="24" depart="84.00">
        <route edges="E2 E5"/>
    </vehicle>
    <vehicle id="25" depart="87.50">
        <route edges="-E4 -E2"/>
    </vehicle>
    <vehicle id="26" depart="91.00">
        <route edges="-E4 -E2"/>
    </vehicle>
    <vehicle id="27" depart="94.50">
        <route edges="-E4 E5"/>
    </vehicle>
    <vehicle id="28" depart="98.00">
        <route edges="-E5 E4"/>
    </vehicle>
    <vehicle id="29" depart="101.50">
        <route edges="E2 E4"/>
    </vehicle>
    <vehicle id="30" depart="105.00">
        <route edges="-E4 -E2"/>
    </vehicle>
    <vehicle id="31" depart="108.50">
        <route edges="-E5 -E2"/>
    </vehicle>
    <vehicle id="32" depart="112.00">
        <route edges="-E5 -E2"/>
    </vehicle>
    <vehicle id="33" depart="115.50">
        <route edges="E2 E4"/>
    </vehicle>
    <vehicle id="34" depart="119.00">
        <route edges="-E4 -E2"/>
    </vehicle>
    <vehicle id="35" depart="122.50">
        <route edges="E2 E4"/>
    </vehicle>
    <vehicle id="36" depart="126.00">
        <route edges="E2 E4"/>
    </vehicle>
    <vehicle id="37" depart="129.50">
        <route edges="E2 E5"/>
    </vehicle>
    <vehicle id="38" depart="133.00">
        <route edges="-E4 E5"/>
    </vehicle>
    <vehicle id="39" depart="136.50">
        <route edges="E2 E4"/>
    </vehicle>
    <vehicle id="40" depart="140.00">
        <route edges="-E5 -E2"/>
    </vehicle>
    <vehicle id="41" depart="143.50">
        <route edges="E2 E5"/>
    </vehicle>
    <vehicle id="42" depart="147.00">
        <route edges="-E5 -E2"/>
    </vehicle>
    <vehicle id="43" depart="150.50">
        <route edges="E2 E4"/>
    </vehicle>
    <vehicle id="44" depart="154.00">
        <route edges="E2 E4"/>
    </vehicle>
    <vehicle id="45" depart="157.50">
        <route edges="-E4 -E2"/>
    </vehicle>
    <vehicle id="46" depart="161.00">
        <route edges="-E4 E5"/>
    </vehicle>
    <vehicle id="47" depart="164.50">
        <route edges="E2 E5"/>
    </vehicle>
    <vehicle id="48" depart="168.00">
        <route edges="-E4 -E2"/>
    </vehicle>
    <vehicle id="49" depart="171.50">
        <route edges="E2 E5"/>
    </vehicle>
    <vehicle id="50" depart="175.00">
        <route edges="-E4 E5"/>
    </vehicle>
    <vehicle id="51" depart="178.50">
        <route edges="-E5 E4"/>
    </vehicle>
    <vehicle id="52" depart="182.00">
        <route edges="-E4 E5"/>
    </vehicle>
    <vehicle id="53" depart="185.50">
        <route edges="-E5 -E2"/>
    </vehicle>
    <vehicle id="54" depart="189.00">
        <route edges="-E4 -E2"/>
    </vehicle>
    <vehicle id="55" depart="192.50">
        <route edges="E2 E4"/>
    </vehicle>
    <vehicle id="56" depart="196.00">
        <route edges="-E5 E4"/>
    </vehicle>
    <vehicle id="57" depart="199.50">
        <route edges="-E4 -E2"/>
    </vehicle>
    <vehicle id="58" depart="203.00">
        <route edges="-E5 E4"/>
    </vehicle>
    <vehicle id="59" depart="206.50">
        <route edges="-E4 -E2"/>
    </vehicle>
    <vehicle id="60" depart="210.00">
        <route edges="-E4 E5"/>
    </vehicle>
    <vehicle id="61" depart="213.50">
        <route edges="-E4 E5"/>
    </vehicle>
    <vehicle id="62" depart="217.00">
        <route edges="-E4 -E2"/>
    </vehicle>
    <vehicle id="63" depart="220.50">
        <route edges="E2 E4"/>
    </vehicle>
    <vehicle id="64" depart="224.00">
        <route edges="-E5 E4"/>
    </vehicle>
    <vehicle id="65" depart="227.50">
        <route edges="E2 E5"/>
    </vehicle>
    <vehicle id="66" depart="231.00">
        <route edges="-E5 E4"/>
    </vehicle>
    <vehicle id="67" depart="234.50">
        <route edges="-E5 -E2"/>
    </vehicle>
    <vehicle id="68" depart="238.00">
        <route edges="-E4 E5"/>
    </vehicle>
    <vehicle id="69" depart="241.50">
        <route edges="-E5 -E2"/>
    </vehicle>
    <vehicle id="70" depart="245.00">
        <route edges="E2 E5"/>
    </vehicle>
    <vehicle id="71" depart="248.50">
        <route edges="E2 E5"/>
    </vehicle>
    <vehicle id="72" depart="252.00">
        <route edges="-E5 -E2"/>
    </vehicle>
    <vehicle id="73" depart="255.50">
        <route edges="-E5 -E2"/>
    </vehicle>
    <vehicle id="74" depart="259.00">
        <route edges="-E4 E5"/>
    </vehicle>
    <vehicle id="75" depart="262.50">
        <route edges="-E5 E4"/>
    </vehicle>
    <vehicle id="76" depart="266.00">
        <route edges="E2 E5"/>
    </vehicle>
    <vehicle id="77" depart="269.50">
        <route edges="-E4 -E2"/>
    </vehicle>
    <vehicle id="78" depart="273.00">
        <route edges="E2 E4"/>
    </vehicle>
    <vehicle id="79" depart="276.50">
        <route edges="-E4 E5"/>
    </vehicle>
    <vehicle id="80" depart="280.00">
        <route edges="-E4 -E2"/>
    </vehicle>
    <vehicle id="81" depart="283.50">
        <route edges="-E4 -E2"/>
    </vehicle>
    <vehicle id="82" depart="287.00">
        <route edges="-E5 E4"/>
    </vehicle>
    <vehicle id="83" depart="290.50">
        <route edges="-E5 E4"/>
    </vehicle>
    <vehicle id="84" depart="294.00">
        <route edges="-E4 E5"/>
    </vehicle>
    <vehicle id="85" depart="297.50">
        <route edges="-E4 E5"/>
    </vehicle>
    <vehicle id="86" depart="301.00">
        <route edges="E2 E5"/>
    </vehicle>
    <vehicle id="87" depart="304.50">
        <route edges="-E4 -E2"/>
    </vehicle>
    <vehicle id="88" depart="308.00">
        <route edges="-E4 E5"/>
    </vehicle>
    <vehicle id="89" depart="311.50">
        <route edges="E2 E5"/>
    </vehicle>
    <vehicle id="90" depart="315.00">
        <route edges="-E5 -E2"/>
    </vehicle>
    <vehicle id="91" depart="318.50">
        <route edges="E2 E5"/>
    </vehicle>
    <vehicle id="92" depart="322.00">
        <route edges="-E5 -E2"/>
    </vehicle>
    <vehicle id="93" depart="325.50">
        <route edges="-E4 -E2"/>
    </vehicle>
    <vehicle id="94" depart="329.00">
        <route edges="-E5 -E2"/>
    </vehicle>
    <vehicle id="95" depart="332.50">
        <route edges="-E5 -E2"/>
    </vehicle>
    <vehicle id="96" depart="336.00">
        <route edges="-E4 E5"/>
    </vehicle>
    <vehicle id="97" depart="339.50">
        <route edges="-E5 -E2"/>
    </vehicle>
    <vehicle id="98" depart="343.00">
        <route edges="E2 E4"/>
    </vehicle>
    <vehicle id="99" depart="346.50">
        <route edges="-E5 -E2"/>
    </vehicle>
    <vehicle id="100" depart="350.00">
        <route edges="-E4 E5"/>
    </vehicle>
    <vehicle id="101" depart="353.50">
        <route edges="E2 E4"/>
    </vehicle>
    <vehicle id="102" depart="357.00">
        <route edges="E2 E4"/>
    </vehicle>
    <vehicle id="103" depart="360.50">
        <route edges="-E4 -E2"/>
    </vehicle>
    <vehicle id="104" depart="364.00">
        <route edges="-E4 E5"/>
    </vehicle>
    <vehicle id="105" depart="367.50">
        <route edges="E2 E5"/>
    </vehicle>
    <vehicle id="106" depart="371.00">
        <route edges="-E4 -E2"/>
    </vehicle>
    <vehicle id="107" depart="374.50">
        <route edges="E2 E5"/>
    </vehicle>
    <vehicle id="108" depart="378.00">
        <route edges="-E5 E4"/>
    </vehicle>
    <vehicle id="109" depart="381.50">
        <route edges="-E4 E5"/>
    </vehicle>
    <vehicle id="110" depart="385.00">
        <route edges="E2 E5"/>
    </vehicle>
    <vehicle id="111" depart="388.50">
        <route edges="E2 E5"/>
    </vehicle>
    <vehicle id="112" depart="392.00">
        <route edges="-E4 E5"/>
    </vehicle>
    <vehicle id="113" depart="395.50">
        <route edges="-E4 E5"/>
    </vehicle>
    <vehicle id="114" depart="399.00">
        <route edges="E2 E5"/>
    </vehicle>
    <vehicle id="115" depart="402.50">
        <route edges="E2 E5"/>
    </vehicle>
    <vehicle id="116" depart="406.00">
        <route edges="-E4 E5"/>
    </vehicle>
    <vehicle id="117" depart="409.50">
        <route edges="-E5 -E2"/>
    </vehicle>
    <vehicle id="118" depart="413.00">
        <route edges="-E4 -E2"/>
    </vehicle>
    <vehicle id="119" depart="416.50">
        <route edges="-E4 E5"/>
    </vehicle>
    <vehicle id="120" depart="420.00">
        <route edges="-E5 E4"/>
    </vehicle>
    <vehicle id="121" depart="423.50">
        <route edges="E2 E4"/>
    </vehicle>
    <vehicle id="122" depart="427.00">
        <route edges="-E5 E4"/>
    </vehicle>
    <vehicle id="123" depart="430.50">
        <route edges="-E5 E4"/>
    </vehicle>
    <vehicle id="124" depart="434.00">
        <route edges="-E4 E5"/>
    </vehicle>
    <vehicle id="125" depart="437.50">
        <route edges="-E4 E5"/>
    </vehicle>
    <vehicle id="126" depart="441.00">
        <route edges="E2 E5"/>
    </vehicle>
    <vehicle id="127" depart="444.50">
        <route edges="-E5 -E2"/>
    </vehicle>
    <vehicle id="128" depart="448.00">
        <route edges="-E5 -E2"/>
    </vehicle>
    <vehicle id="129" depart="451.50">
        <route edges="-E4 E5"/>
    </vehicle>
    <vehicle id="130" depart="455.00">
        <route edges="-E5 -E2"/>
    </vehicle>
    <vehicle id="131" depart="458.50">
        <route edges="E2 E5"/>
    </vehicle>
    <vehicle id="132" depart="462.00">
        <route edges="E2 E4"/>
    </vehicle>
    <vehicle id="133" depart="465.50">
        <route edges="-E4 -E2"/>
    </vehicle>
    <vehicle id="134" depart="469.00">
        <route edges="-E5 E4"/>
    </vehicle>
    <vehicle id="135" depart="472.50">
        <route edges="-E5 E4"/>
    </vehicle>
    <vehicle id="136" depart="476.00">
        <route edges="-E5 -E2"/>
    </vehicle>
    <vehicle id="137" depart="479.50">
        <route edges="-E5 E4"/>
    </vehicle>
    <vehicle id="138" depart="483.00">
        <route edges="E2 E5"/>
    </vehicle>
    <vehicle id="139" depart="486.50">
        <route edges="-E4 -E2"/>
    </vehicle>
    <vehicle id="140" depart="490.00">
        <route edges="-E5 E4"/>
    </vehicle>
    <vehicle id="141" depart="493.50">
        <route edges="-E4 E5"/>
    </vehicle>
    <vehicle id="142" depart="497.00">
        <route edges="-E5 -E2"/>
    </vehicle>
    <vehicle id="143" depart="500.50">
        <route edges="-E5 -E2"/>
    </vehicle>
    <vehicle id="144" depart="504.00">
        <route edges="E2 E5"/>
    </vehicle>
    <vehicle id="145" depart="507.50">
        <route edges="-E4 E5"/>
    </vehicle>
    <vehicle id="146" depart="511.00">
        <route edges="-E5 -E2"/>
    </vehicle>
    <vehicle id="147" depart="514.50">
        <route edges="-E4 E5"/>
    </vehicle>
    <vehicle id="148" depart="518.00">
        <route edges="E2 E5"/>
    </vehicle>
    <vehicle id="149" depart="521.50">
        <route edges="E2 E4"/>
    </vehicle>
    <vehicle id="150" depart="525.00">
        <route edges="E2 E4"/>
    </vehicle>
    <vehicle id="151" depart="528.50">
        <route edges="E2 E4"/>
    </vehicle>
    <vehicle id="152" depart="532.00">
        <route edges="E2 E5"/>
    </vehicle>
    <vehicle id="153" depart="535.50">
        <route edges="-E5 -E2"/>
    </vehicle>
    <vehicle id="154" depart="539.00">
        <route edges="E2 E4"/>
    </vehicle>
    <vehicle id="155" depart="542.50">
        <route edges="-E5 -E2"/>
    </vehicle>
    <vehicle id="156" depart="546.00">
        <route edges="-E4 -E2"/>
    </vehicle>
    <vehicle id="157" depart="549.50">
        <route edges="-E4 -E2"/>
    </vehicle>
    <vehicle id="158" depart="553.00">
        <route edges="-E5 -E2"/>
    </vehicle>
    <vehicle id="159" depart="556.50">
        <route edges="-E4 E5"/>
    </vehicle>
    <vehicle id="160" depart="560.00">
        <route edges="-E5 E4"/>
    </vehicle>
    <vehicle id="161" depart="563.50">
        <route edges="-E5 -E2"/>
    </vehicle>
    <vehicle id="162" depart="567.00">
        <route edges="E2 E5"/>
    </vehicle>
    <vehicle id="163" depart="570.50">
        <route edges="-E5 -E2"/>
    </vehicle>
    <vehicle id="164" depart="574.00">
        <route edges="E2 E5"/>
    </vehicle>
    <vehicle id="165" depart="577.50">
        <route edges="-E5 E4"/>
    </vehicle>
    <vehicle id="166" depart="581.00">
        <route edges="-E4 -E2"/>
    </vehicle>
    <vehicle id="167" depart="584.50">
        <route edges="-E5 -E2"/>
    </vehicle>
    <vehicle id="168" depart="588.00">
        <route edges="-E5 -E2"/>
    </vehicle>
    <vehicle id="169" depart="591.50">
        <route edges="-E5 -E2"/>
    </vehicle>
    <vehicle id="170" depart="595.00">
        <route edges="-E5 -E2"/>
    </vehicle>
    <vehicle id="171" depart="598.50">
        <route edges="-E5 E4"/>
    </vehicle>
    <vehicle id="172" depart="602.00">
        <route edges="-E4 -E2"/>
    </vehicle>
    <vehicle id="173" depart="605.50">
        <route edges="E2 E4"/>
    </vehicle>
    <vehicle id="174" depart="609.00">
        <route edges="E2 E5"/>
    </vehicle>
    <vehicle id="175" depart="612.50">
        <route edges="-E4 -E2"/>
    </vehicle>
    <vehicle id="176" depart="616.00">
        <route edges="E2 E4"/>
    </vehicle>
    <vehicle id="177" depart="619.50">
        <route edges="-E4 -E2"/>
    </vehicle>
    <vehicle id="178" depart="623.00">
        <route edges="-E4 E5"/>
    </vehicle>
    <vehicle id="179" depart="626.50">
        <route edges="-E5 -E2"/>
    </vehicle>
    <vehicle id="180" depart="630.00">
        <route edges="E2 E5"/>
    </vehicle>
    <vehicle id="181" depart="633.50">
        <route edges="E2 E5"/>
    </vehicle>
    <vehicle id="182" depart="637.00">
        <route edges="-E4 -E2"/>
    </vehicle>
    <vehicle id="183" depart="640.50">
        <route edges="-E4 E5"/>
    </vehicle>
    <vehicle id="184" depart="644.00">
        <route edges="E2 E4"/>
    </vehicle>
    <vehicle id="185" depart="647.50">
        <route edges="E2 E4"/>
    </vehicle>
    <vehicle id="186" depart="651.00">
        <route edges="-E4 E5"/>
    </vehicle>
    <vehicle id="187" depart="654.50">
        <route edges="E2 E4"/>
    </vehicle>
    <vehicle id="188" depart="658.00">
        <route edges="-E4 E5"/>
    </vehicle>
    <vehicle id="189" depart="661.50">
        <route edges="E2 E4"/>
    </vehicle>
    <vehicle id="190" depart="665.00">
        <route edges="-E5 E4"/>
    </vehicle>
    <vehicle id="191" depart="668.50">
        <route edges="-E5 E4"/>
    </vehicle>
    <vehicle id="192" depart="672.00">
        <route edges="E2 E5"/>
    </vehicle>
    <vehicle id="193" depart="675.50">
        <route edges="-E4 E5"/>
    </vehicle>
    <vehicle id="194" depart="679.00">
        <route edges="E2 E4"/>
    </vehicle>
    <vehicle id="195" depart="682.50">
        <route edges="E2 E5"/>
    </vehicle>
    <vehicle id="196" depart="686.00">
        <route edges="-E4 E5"/>
    </vehicle>
    <vehicle id="197" depart="689.50">
        <route edges="-E5 E4"/>
    </vehicle>
    <vehicle id="198" depart="693.00">
        <route edges="-E4 E5"/>
    </vehicle>
    <vehicle id="199" depart="696.50">
        <route edges="-E5 E4"/>
    </vehicle>
    <vehicle id="200" depart="700.00">
        <route edges="-E5 -E2"/>
    </vehicle>
    <vehicle id="201" depart="703.50">
        <route edges="-E4 E5"/>
    </vehicle>
    <vehicle id="202" depart="707.00">
        <route edges="-E4 E5"/>
    </vehicle>
    <vehicle id="203" depart="710.50">
        <route edges="-E4 E5"/>
    </vehicle>
    <vehicle id="204" depart="714.00">
        <route edges="E2 E4"/>
    </vehicle>
    <vehicle id="205" depart="717.50">
        <route edges="-E4 -E2"/>
    </vehicle>
    <vehicle id="206" depart="721.00">
        <route edges="-E5 E4"/>
    </vehicle>
    <vehicle id="207" depart="724.50">
        <route edges="-E5 E4"/>
    </vehicle>
    <vehicle id="208" depart="728.00">
        <route edges="-E4 -E2"/>
    </vehicle>
    <vehicle id="209" depart="731.50">
        <route edges="-E4 -E2"/>
    </vehicle>
    <vehicle id="210" depart="735.00">
        <route edges="-E4 -E2"/>
    </vehicle>
    <vehicle id="211" depart="738.50">
        <route edges="E2 E4"/>
    </vehicle>
    <vehicle id="212" depart="742.00">
        <route edges="-E4 -E2"/>
    </vehicle>
    <vehicle id="213" depart="745.50">
        <route edges="-E4 -E2"/>
    </vehicle>
    <vehicle id="214" depart="749.00">
        <route edges="-E4 -E2"/>
    </vehicle>
    <vehicle id="215" depart="752.50">
        <route edges="-E5 -E2"/>
    </vehicle>
    <vehicle id="216" depart="756.00">
        <route edges="E2 E4"/>
    </vehicle>
    <vehicle id="217" depart="759.50">
        <route edges="E2 E4"/>
    </vehicle>
    <vehicle id="218" depart="763.00">
        <route edges="E2 E4"/>
    </vehicle>
    <vehicle id="219" depart="766.50">
        <route edges="-E5 E4"/>
    </vehicle>
    <vehicle id="220" depart="770.00">
        <route edges="-E4 -E2"/>
    </vehicle>
    <vehicle id="221" depart="773.50">
        <route edges="E2 E4"/>
    </vehicle>
    <vehicle id="222" depart="777.00">
        <route edges="E2 E4"/>
    </vehicle>
    <vehicle id="223" depart="780.50">
        <route edges="-E4 -E2"/>
    </vehicle>
    <vehicle id="224" depart="784.00">
        <route edges="-E5 -E2"/>
    </vehicle>
    <vehicle id="225" depart="787.50">
        <route edges="E2 E4"/>
    </vehicle>
    <vehicle id="226" depart="791.00">
        <route edges="-E5 E4"/>
    </vehicle>
    <vehicle id="227" depart="794.50">
        <route edges="-E5 E4"/>
    </vehicle>
    <vehicle id="228" depart="798.00">
        <route edges="E2 E5"/>
    </vehicle>
    <vehicle id="229" depart="801.50">
        <route edges="-E4 -E2"/>
    </vehicle>
    <vehicle id="230" depart="805.00">
        <route edges="-E5 -E2"/>
    </vehicle>
    <vehicle id="231" depart="808.50">
        <route edges="-E4 -E2"/>
    </vehicle>
    <vehicle id="232" depart="812.00">
        <route edges="-E5 -E2"/>
    </vehicle>
    <vehicle id="233" depart="815.50">
        <route edges="-E4 E5"/>
    </vehicle>
    <vehicle id="234" depart="819.00">
        <route edges="E2 E4"/>
    </vehicle>
    <vehicle id="235" depart="822.50">
        <route edges="E2 E5"/>
    </vehicle>
    <vehicle id="236" depart="826.00">
        <route edges="E2 E4"/>
    </vehicle>
    <vehicle id="237" depart="829.50">
        <route edges="-E5 E4"/>
    </vehicle>
    <vehicle id="238" depart="833.00">
        <route edges="-E4 -E2"/>
    </vehicle>
    <vehicle id="239" depart="836.50">
        <route edges="E2 E4"/>
    </vehicle>
    <vehicle id="240" depart="840.00">
        <route edges="-E4 -E2"/>
    </vehicle>
    <vehicle id="241" depart="843.50">
        <route edges="E2 E5"/>
    </vehicle>
    <vehicle id="242" depart="847.00">
        <route edges="E2 E4"/>
    </vehicle>
    <vehicle id="243" depart="850.50">
        <route edges="-E5 -E2"/>
    </vehicle>
    <vehicle id="244" depart="854.00">
        <route edges="-E4 -E2"/>
    </vehicle>
    <vehicle id="245" depart="857.50">
        <route edges="-E4 E5"/>
    </vehicle>
    <vehicle id="246" depart="861.00">
        <route edges="E2 E4"/>
    </vehicle>
    <vehicle id="247" depart="864.50">
        <route edges="E2 E5"/>
    </vehicle>
    <vehicle id="248" depart="868.00">
        <route edges="-E4 E5"/>
    </vehicle>
    <vehicle id="249" depart="871.50">
        <route edges="-E5 E4"/>
    </vehicle>
    <vehicle id="250" depart="875.00">
        <route edges="-E5 E4"/>
    </vehicle>
    <vehicle id="251" depart="878.50">
        <route edges="-E5 -E2"/>
    </vehicle>
    <vehicle id="252" depart="882.00">
        <route edges="-E5 -E2"/>
    </vehicle>
    <vehicle id="253" depart="885.50">
        <route edges="E2 E5"/>
    </vehicle>
    <vehicle id="254" depart="889.00">
        <route edges="-E4 E5"/>
    </vehicle>
    <vehicle id="255" depart="892.50">
        <route edges="-E4 E5"/>
    </vehicle>
    <vehicle id="256" depart="896.00">
        <route edges="E2 E4"/>
    </vehicle>
    <vehicle id="257" depart="899.50">
        <route edges="-E5 -E2"/>
    </vehicle>
    <vehicle id="258" depart="903.00">
        <route edges="-E4 E5"/>
    </vehicle>
    <vehicle id="259" depart="906.50">
        <route edges="-E5 E4"/>
    </vehicle>
    <vehicle id="260" depart="910.00">
        <route edges="E2 E4"/>
    </vehicle>
    <vehicle id="261" depart="913.50">
        <route edges="-E5 E4"/>
    </vehicle>
    <vehicle id="262" depart="917.00">
        <route edges="E2 E4"/>
    </vehicle>
    <vehicle id="263" depart="920.50">
        <route edges="-E4 E5"/>
    </vehicle>
    <vehicle id="264" depart="924.00">
        <route edges="-E5 -E2"/>
    </vehicle>
    <vehicle id="265" depart="927.50">
        <route edges="-E5 -E2"/>
    </vehicle>
    <vehicle id="266" depart="931.00">
        <route edges="E2 E5"/>
    </vehicle>
    <vehicle id="267" depart="934.50">
        <route edges="-E5 -E2"/>
    </vehicle>
    <vehicle id="268" depart="938.00">
        <route edges="E2 E4"/>
    </vehicle>
    <vehicle id="269" depart="941.50">
        <route edges="E2 E4"/>
    </vehicle>
    <vehicle id="270" depart="945.00">
        <route edges="-E4 E5"/>
    </vehicle>
    <vehicle id="271" depart="948.50">
        <route edges="-E5 E4"/>
    </vehicle>
    <vehicle id="272" depart="952.00">
        <route edges="E2 E4"/>
    </vehicle>
    <vehicle id="273" depart="955.50">
        <route edges="E2 E5"/>
    </vehicle>
    <vehicle id="274" depart="959.00">
        <route edges="-E4 E5"/>
    </vehicle>
    <vehicle id="275" depart="962.50">
        <route edges="-E4 -E2"/>
    </vehicle>
    <vehicle id="276" depart="966.00">
        <route edges="-E5 -E2"/>
    </vehicle>
    <vehicle id="277" depart="969.50">
        <route edges="-E5 E4"/>
    </vehicle>
    <vehicle id="278" depart="973.00">
        <route edges="-E5 E4"/>
    </vehicle>
    <vehicle id="279" depart="976.50">
        <route edges="-E5 -E2"/>
    </vehicle>
    <vehicle id="280" depart="980.00">
        <route edges="-E4 E5"/>
    </vehicle>
    <vehicle id="281" depart="983.50">
        <route edges="-E5 -E2"/>
    </vehicle>
    <vehicle id="282" depart="987.00">
        <route edges="E2 E5"/>
    </vehicle>
    <vehicle id="283" depart="990.50">
        <route edges="E2 E4"/>
    </vehicle>
    <vehicle id="284" depart="994.00">
        <route edges="E2 E4"/>
    </vehicle>
    <vehicle id="285" depart="997.50">
        <route edges="E2 E4"/>
    </vehicle>
    <vehicle id="286" depart="1001.00">
        <route edges="-E5 E4"/>
    </vehicle>
    <vehicle id="287" depart="1004.50">
        <route edges="E2 E4"/>
    </vehicle>
    <vehicle id="288" depart="1008.00">
        <route edges="-E5 -E2"/>
    </vehicle>
    <vehicle id="289" depart="1011.50">
        <route edges="E2 E5"/>
    </vehicle>
    <vehicle id="290" depart="1015.00">
        <route edges="-E5 -E2"/>
    </vehicle>
    <vehicle id="291" depart="1018.50">
        <route edges="E2 E5"/>
    </vehicle>
    <vehicle id="292" depart="1022.00">
        <route edges="E2 E5"/>
    </vehicle>
    <vehicle id="293" depart="1025.50">
        <route edges="E2 E4"/>
    </vehicle>
    <vehicle id="294" depart="1029.00">
        <route edges="E2 E4"/>
    </vehicle>
    <vehicle id="295" depart="1032.50">
        <route edges="E2 E5"/>
    </vehicle>
    <vehicle id="296" depart="1036.00">
        <route edges="-E4 E5"/>
    </vehicle>
    <vehicle id="297" depart="1039.50">
        <route edges="-E4 -E2"/>
    </vehicle>
    <vehicle id="298" depart="1043.00">
        <route edges="E2 E4"/>
    </vehicle>
    <vehicle id="299" depart="1046.50">
        <route edges="-E4 E5"/>
    </vehicle>
    <vehicle id="300" depart="1050.00">
        <route edges="-E4 -E2"/>
    </vehicle>
    <vehicle id="301" depart="1053.50">
        <route edges="-E4 E5"/>
    </vehicle>
    <vehicle id="302" depart="1057.00">
        <route edges="E2 E5"/>
    </vehicle>
    <vehicle id="303" depart="1060.50">
        <route edges="-E5 E4"/>
    </vehicle>
    <vehicle id="304" depart="1064.00">
        <route edges="-E5 E4"/>
    </vehicle>
    <vehicle id="305" depart="1067.50">
        <route edges="-E4 E5"/>
    </vehicle>
    <vehicle id="306" depart="1071.00">
        <route edges="-E5 -E2"/>
    </vehicle>
    <vehicle id="307" depart="1074.50">
        <route edges="-E5 E4"/>
    </vehicle>
    <vehicle id="308" depart="1078.00">
        <route edges="E2 E4"/>
    </vehicle>
    <vehicle id="309" depart="1081.50">
        <route edges="E2 E5"/>
    </vehicle>
    <vehicle id="310" depart="1085.00">
        <route edges="-E4 E5"/>
    </vehicle>
    <vehicle id="311" depart="1088.50">
        <route edges="-E5 E4"/>
    </vehicle>
    <vehicle id="312" depart="1092.00">
        <route edges="-E5 E4"/>
    </vehicle>
    <vehicle id="313" depart="1095.50">
        <route edges="E2 E5"/>
    </vehicle>
    <vehicle id="314" depart="1099.00">
        <route edges="-E5 -E2"/>
    </vehicle>
    <vehicle id="315" depart="1102.50">
        <route edges="-E5 E4"/>
    </vehicle>
    <vehicle id="316" depart="1106.00">
        <route edges="-E4 E5"/>
    </vehicle>
    <vehicle id="317" depart="1109.50">
        <route edges="-E4 -E2"/>
    </vehicle>
    <vehicle id="318" depart="1113.00">
        <route edges="E2 E4"/>
    </vehicle>
    <vehicle id="319" depart="1116.50">
        <route edges="E2 E5"/>
    </vehicle>
    <vehicle id="320" depart="1120.00">
        <route edges="-E5 -E2"/>
    </vehicle>
    <vehicle id="321" depart="1123.50">
        <route edges="E2 E5"/>
    </vehicle>
    <vehicle id="322" depart="1127.00">
        <route edges="E2 E5"/>
    </vehicle>
    <vehicle id="323" depart="1130.50">
        <route edges="E2 E5"/>
    </vehicle>
    <vehicle id="324" depart="1134.00">
        <route edges="E2 E4"/>
    </vehicle>
    <vehicle id="325" depart="1137.50">
        <route edges="E2 E5"/>
    </vehicle>
    <vehicle id="326" depart="1141.00">
        <route edges="-E4 -E2"/>
    </vehicle>
    <vehicle id="327" depart="1144.50">
        <route edges="-E4 E5"/>
    </vehicle>
    <vehicle id="328" depart="1148.00">
        <route edges="-E4 -E2"/>
    </vehicle>
    <vehicle id="329" depart="1151.50">
        <route edges="E2 E5"/>
    </vehicle>
    <vehicle id="330" depart="1155.00">
        <route edges="-E4 E5"/>
    </vehicle>
    <vehicle id="331" depart="1158.50">
        <route edges="-E4 E5"/>
    </vehicle>
    <vehicle id="332" depart="1162.00">
        <route edges="E2 E5"/>
    </vehicle>