<?xml version="1.0" encoding="UTF-8"?>

<!-- generated on 2026-02-18T01:09:45.103833+02:00 by Eclipse SUMO netedit 1.26.0
<neteditConfiguration xmlns:xsi="http://www.w3.org/2001/XMLSchema-instance" xsi:noNamespaceSchemaLocation="http://sumo.dlr.de/xsd/neteditConfiguration.xsd">

    <input>
        <sumo-net-file value="C:\Users\GAMEMAX\Desktop\univer\Traffic_AI\maps\2026-02-17-22-56-52\osm.net.xml.gz"/>
    </input>

    <output>
        <output.street-names value="true"/>
    </output>

    <processing>
        <geometry.min-radius.fix.railways value="false"/>
        <geometry.avoid-overlap value="false"/>
        <geometry.max-grade.fix value="false"/>
        <offset.disable-normalization value="true"/>
        <lefthand value="0"/>
    </processing>

    <junctions>
        <no-turnarounds value="true"/>
        <junctions.corner-detail value="5"/>
        <junctions.limit-turn-speed value="5.50"/>
        <rectangular-lane-cut value="0"/>
    </junctions>

    <pedestrian>
        <walkingareas value="0"/>
    </pedestrian>

</neteditConfiguration>
-->

<additional xmlns:xsi="http://www.w3.org/2001/XMLSchema-instance" xsi:noNamespaceSchemaLocation="http://sumo.dlr.de/xsd/additional_file.xsd">
    <tlLogic id="cluster8328640414_cluster3900426514_cluster_1749421768_30508651_3738015492_8328640403_#1more" type="actuated" programID="0" offset="0">
        <phase duration="15" state="GrrrGGG"/>
        <phase duration="3"  state="yrrrGyy"/>
        <phase duration="20" state="rGGGGrr"/>
        <phase duration="3"  state="ryyyGrr"/>
    </tlLogic>
</additional>
